758
1BNA  0.000000
O 18.9350 34.1950 25.6170
C 19.1300 33.9210 24.2190
C 19.9610 32.6680 24.1000
O 19.3600 31.5830 24.8520
C 20.1720 32.1220 22.6940
O 21.3500 31.3250 22.6810
C 18.9480 31.2230 22.6470
C 19.2310 30.4820 23.9440
N 18.0700 29.6610 24.3800
C 18.2240 28.4540 25.0150
O 19.3600 28.0140 25.2140
N 17.1430 27.7610 25.3770
C 15.9170 28.2260 25.1200
N 14.8280 27.4770 25.4440
C 15.7190 29.4420 24.4710
C 16.8430 30.1710 24.1010
H 18.4377 33.3868 26.0665
H 18.1655 33.7723 23.7335
H 19.6497 34.7553 23.7479
H 20.9409 32.8728 24.5312
H 20.1674 32.8959 21.9265
H 18.0142 31.7842 22.6801
H 18.9455 30.5633 21.7793
H 20.1466 29.8935 23.8851
H 14.9550 26.5189 25.9031
H 13.8447 27.8462 25.2397
H 14.7150 29.8102 24.2600
H 16.7416 31.1323 23.5973
P 22.4090 31.2860 21.4830
O 23.5360 32.1570 21.8510
O 21.8220 31.4590 20.1390
O 22.8400 29.7510 21.4980
C 23.5430 29.1750 22.5940
C 23.4940 27.7090 22.2790
O 22.1930 27.2520 22.6740
C 23.6930 27.3250 20.8070
O 24.7230 26.3200 20.6530
C 22.2730 26.8850 20.4160
C 21.7210 26.3040 21.7160
N 20.2370 26.4700 21.7800
C 19.5260 27.5840 21.4290
N 18.2070 27.4550 21.6360
C 18.0830 26.2120 22.1420
C 16.9040 25.5250 22.5450
O 15.7390 25.9160 22.5180
N 17.1970 24.2790 23.0370
C 18.4340 23.7170 23.1550
N 18.5080 22.4560 23.6680
N 19.5370 24.3600 22.7700
C 19.2900 25.5940 22.2740
H 24.5712 29.5346 22.6346
H 23.0443 29.3913 23.5388
H 24.2441 27.1954 22.8804
H 23.9661 28.2124 20.2361
H 21.6775 27.7353 20.0835
H 22.2997 26.1300 19.6303
H 22.0535 25.2847 21.9125
H 19.9845 28.4854 21.0223
H 16.3683 23.6855 23.3624
H 19.4577 21.9727 23.7649
H 17.6164 21.9496 23.9737
P 25.0640 25.6210 19.2520
O 26.5060 25.3160 19.2200
O 24.5590 26.4120 18.1150
O 24.2600 24.2460 19.3270
C 24.5840 23.2850 20.3350
C 23.5230 22.2330 20.2450
O 22.2560 22.8440 20.4530
C 23.4240 21.5570 18.9030
O 24.1210 20.3090 18.9280
C 21.9300 21.4060 18.6610
C 21.2780 21.9660 19.9090
N 20.1960 22.8890 19.5210
C 18.9090 22.5840 19.8160
O 18.6850 21.5120 20.3820
N 17.9350 23.4470 19.5020
C 18.2170 24.6030 18.8970
N 17.2210 25.4990 18.6290
C 19.5260 24.9450 18.5710
C 20.5370 24.0480 18.8990
H 25.5661 22.8517 20.1456
H 24.5755 23.7503 21.3207
H 23.6928 21.4817 21.0163
H 23.8551 22.2011 18.1366
H 21.6244 21.9721 17.7811
H 21.6667 20.3567 18.5281
H 20.9554 21.1950 20.6087
H 16.2116 25.2750 18.9042
H 17.4504 26.4247 18.1439
H 19.7522 25.8880 18.0733
H 21.5778 24.2694 18.6628
P 24.2490 19.4120 17.6170
O 25.4200 18.5350 17.7650
O 24.2080 20.2960 16.4400
O 22.9310 18.5370 17.6700
C 22.7140 17.6250 18.7530
C 21.3930 16.9600 18.5050
O 20.3530 17.9520 18.4960
C 21.2640 16.2290 17.1760
O 20.2840 15.2140 17.2380
C 20.7930 17.3680 16.2880
C 19.7160 17.9010 17.2180
N 19.3050 19.2810 16.8690
C 20.0170 20.2630 16.2320
N 19.3130 21.3940 16.0770
C 18.1210 21.1000 16.6350
C 16.9520 21.9040 16.7490
O 16.7690 23.0570 16.3680
N 15.9330 21.2140 17.3520
C 15.9720 19.9300 17.8160
N 14.8310 19.4160 18.3530
N 17.0680 19.1790 17.7170
C 18.0840 19.8250 17.1210
H 23.5092 16.8800 18.7804
H 22.6894 18.1659 19.6990
H 21.1981 16.2551 19.3132
H 22.2244 15.8355 16.8431
H 21.5783 18.0997 16.0982
H 20.3869 17.0158 15.3398
H 18.8552 17.2327 17.2392
H 21.0440 20.1386 15.8885
H 15.0075 21.7373 17.4722
H 14.8112 18.4035 18.6984
H 13.9543 20.0247 18.4295
P 20.3560 13.9690 16.2450
O 21.1160 12.8910 16.8920
O 20.8370 14.4230 14.9100
O 18.8100 13.5810 16.1610
C 18.0150 13.5690 17.3620
C 16.6720 14.0880 16.9570
O 16.8420 15.4470 16.5610
C 16.0190 13.3930 15.7640
O 14.7620 12.7960 16.1200
C 15.9520 14.4980 14.6960
C 15.8510 15.7320 15.5690
N 16.3910 16.9160 14.8670
C 17.6580 17.1030 14.3820
N 17.8630 18.3460 13.9130
C 16.6730 18.9530 14.0980
C 16.2300 20.2790 13.8190
N 17.0450 21.2220 13.2680
N 14.9660 20.5780 14.1180
C 14.1780 19.6520 14.6690
N 14.4630 18.3920 14.9840
C 15.7500 18.1100 14.6610
H 17.9296 12.5548 17.7521
H 18.4599 14.2140 18.1197
H 15.9971 14.0445 17.8119
H 16.6881 12.6085 15.4104
H 16.8511 14.5152 14.0801
H 15.0757 14.3858 14.0576
H 14.8553 15.8900 15.9833
H 18.4211 16.3247 14.3768
H 18.0590 20.9787 13.0282
H 16.6709 22.2058 13.0752
H 13.1604 19.9731 14.8914
P 13.8660 12.0060 15.0630
O 13.0280 11.0390 15.8000
O 14.7150 11.4990 13.9680
O 12.8790 13.1110 14.4800
C 11.8020 13.5970 15.2900
C 11.1110 14.6030 14.4350
O 12.1520 15.4600 13.9620
C 10.4170 14.0700 13.1870
O  9.0070 14.3690 13.1810
C 11.2400 14.6920 12.0610
C 11.6990 15.9740 12.7190
N 12.9180 16.5260 12.0780
C 14.1150 15.8990 11.8680
N 15.0490 16.7140 11.3560
C 14.4160 17.9010 11.2460
C 14.8730 19.1870 10.8150
N 16.1610 19.4180 10.4270
N 13.9990 20.1910 10.8520
C 12.7530 19.9620 11.2720
N 12.2100 18.8240 11.6980
C 13.1160 17.8230 11.6570
H 11.1234 12.7860 15.5542
H 12.1840 14.0623 16.1987
H 10.4042 15.1759 15.0353
H 10.5435 12.9879 13.1537
H 12.0833 14.0593 11.7842
H 10.6291 14.8899 11.1802
H 10.9015 16.7094 12.8254
H 14.2915 14.8472 12.0931
H 16.8742 18.6204 10.4376
H 16.4576 20.3967 10.1122
H 12.0886 20.8260 11.2652
P  8.0810 14.0500 11.9150
O  6.6680 13.9600 12.3420
O  8.6000 12.8940 11.1370
O  8.2390 15.3870 11.0760
C  7.9070 16.6350 11.6860
C  8.1620 17.6280 10.5980
O  9.5430 17.5800 10.2790
C  7.4610 17.2840  9.2960
O  6.2510 18.0340  9.1620
C  8.5320 17.5270  8.2230
C  9.6440 18.2090  9.0190
N 11.0210 17.9030  8.5650
C 11.8220 18.9230  8.1760
O 11.3830 20.0770  8.1430
N 13.1190 18.6410  7.8520
C 13.6330 17.3720  7.8820
O 14.8300 17.2220  7.6190
C 12.7810 16.3250  8.2350
C 13.2690 14.9020  8.2360
C 11.4650 16.6160  8.5940
H  6.8615 16.6531 11.9939
H  8.5439 16.8293 12.5490
H  7.8831 18.6295 10.9257
H  7.2127 16.2227  9.3050
H  8.8762 16.5879  7.7897
H  8.1575 18.1770  7.4322
H  9.4786 19.2837  9.0952
H 13.7609 19.4465  7.5623
H 12.4581 14.2395  8.5384
H 14.0989 14.8025  8.9357
H 13.6041 14.6316  7.2346
H 10.7924 15.8138  8.8976
P  5.3840 17.9900  7.8240
O  4.0250 18.4440  8.1800
O  5.4580 16.6680  7.1600
O  6.0860 19.1180  6.9270
C  6.1460 20.4780  7.4180
C  6.9950 21.2290  6.4380
O  8.1880 20.4580  6.2840
C  6.4180 21.3320  5.0290
O  5.9670 22.6670  4.6960
C  7.5130 20.7180  4.1390
C  8.7360 20.8550  5.0340
N  9.8230 19.8760  4.7590
C 11.0860 20.3160  4.4940
O 11.3240 21.5160  4.3890
N 12.0940 19.4030  4.4120
C 11.8760 18.0600  4.5510
O 12.8580 17.3170  4.5030
C 10.5690 17.6110  4.7650
C 10.2610 16.1400  4.8960
C  9.5450 18.5480  4.9040
H  5.1461 20.9097  7.4627
H  6.5981 20.5038  8.4095
H  7.2319 22.2205  6.8238
H  5.5510 20.6730  4.9820
H  7.3015 19.6736  3.9096
H  7.6330 21.2772  3.2111
H  9.1082 21.8792  5.0600
H 13.0906 19.7486  4.2327
H  9.1915 16.0052  5.0574
H 10.8105 15.7272  5.7421
H 10.5582 15.6234  3.9833
H  8.5293 18.2214  5.1270
P  5.5310 23.0710  3.2090
O  4.6480 24.2440  3.2690
O  5.0100 21.9050  2.4700
O  6.9260 23.5470  2.6110
C  7.6360 24.6270  3.2490
C  8.8970 24.8530  2.4570
O  9.6380 23.6270  2.4480
C  8.7170 25.2400  0.9980
O  9.4700 26.4140  0.6670
C  9.1260 23.9650  0.2530
C 10.2410 23.4830  1.1570
N 10.5240 22.0220  1.0150
C 11.8140 21.6030  0.8400
O 12.6910 22.4470  0.6700
N 12.1060 20.2970  0.8730
C 11.1410 19.3950  1.0460
N 11.4610 18.0750  1.0890
C  9.8030 19.7750  1.1770
C  9.4990 21.1330  1.1670
H  7.0252 25.5298  3.2460
H  7.8823 24.3578  4.2761
H  9.4916 25.6198  2.9536
H  7.6607 25.4341  0.8120
H  8.3080 23.2465  0.2005
H  9.4853 24.1814 -0.7531
H 11.1423 24.0875  1.0552
H 12.4807 17.7680  0.9843
H 10.6933 17.3426  1.2275
H  9.0174 19.0271  1.2843
H  8.4708 21.4775  1.2775
P  9.0550 27.3330 -0.5810
O  9.4960 28.7170 -0.2580
O  7.6320 27.1060 -0.9470
O  9.9540 26.7650 -1.7710
C 11.3820 26.9400 -1.7200
C 11.9720 26.0900 -2.8020
O 11.8020 24.7240 -2.4040
C 11.3270 26.1780 -4.1880
O 12.3110 26.0960 -5.2140
C 10.4140 24.9620 -4.1860
C 11.4290 24.0280 -3.5870
N 10.8900 22.7130 -3.2000
C  9.6160 22.3150 -2.9100
N  9.5410 21.0090 -2.6130
C 10.8180 20.5880 -2.7180
C 11.3760 19.2920 -2.5110
O 10.8130 18.2520 -2.1790
N 12.7290 19.2990 -2.7200
C 13.4980 20.3650 -3.0820
N 14.8340 20.1690 -3.2370
N 12.9820 21.5730 -3.2670
C 11.6560 21.6010 -3.0610
H 11.6359 27.9867 -1.8875
H 11.7622 26.6244 -0.7484
H 13.0365 26.3080 -2.8881
H 10.7460 27.0952 -4.2845
H  9.5346 25.0932 -3.5555
H 10.1027 24.6640 -5.1872
H 12.2851 23.9125 -4.2517
H  8.7557 22.9843 -2.9189
H 13.2377 18.3675 -2.5847
H 15.4670 20.9881 -3.5077
H 15.2527 19.1956 -3.0884
P 12.7630 27.4210 -5.9800
O 12.7960 28.5720 -5.0490
O 11.8860 27.5420 -7.1640
O 14.2720 27.0860 -6.3660
C 15.2750 27.1080 -5.3180
C 16.2220 25.9460 -5.5100
O 15.4430 24.7540 -5.3970
C 16.9420 25.8270 -6.8480
O 18.3400 25.5110 -6.7010
C 16.1180 24.7670 -7.5780
C 15.8560 23.8360 -6.4140
N 14.6720 22.9750 -6.6370
C 14.8020 21.6280 -6.5290
O 15.9240 21.1780 -6.3140
N 13.7230 20.8420 -6.6270
C 12.5150 21.3730 -6.8360
N 11.4100 20.5740 -6.8720
C 12.3480 22.7440 -6.9780
C 13.4700 23.5580 -6.8690
H 15.8320 28.0436 -5.3666
H 14.7883 27.0244 -4.3463
H 16.9632 25.9597 -4.7109
H 16.8499 26.7728 -7.3819
H 15.1959 25.1771 -7.9899
H 16.6863 24.2811 -8.3711
H 16.7397 23.2655 -6.1281
H 11.5088 19.5177 -6.7326
H 10.4444 21.0035 -7.0397
H 11.3636 23.1708 -7.1698
H 13.3852 24.6402 -6.9678
P 19.3310 25.7740 -7.9250
O 20.7040 25.9760 -7.4080
O 18.7630 26.8510 -8.7580
O 19.3020 24.4120 -8.7630
C 20.1090 23.2840 -8.3590
C 19.7480 22.1670 -9.2990
O 18.3500 21.9690 -9.1390
C 19.9210 22.4040 -10.8150
O 20.9850 21.6350 -11.4010
C 18.5350 22.0620 -11.3810
C 17.9650 21.2000 -10.2690
N 16.4930 21.2200 -10.2650
C 15.6630 22.2890 -10.4780
N 14.3680 21.9580 -10.3900
C 14.3880 20.6400 -10.1020
C 13.3010 19.7420 -9.8560
O 12.0910 19.9670 -9.8570
N 13.7500 18.4660 -9.6250
C 15.0420 18.0430 -9.6050
N 15.2590 16.7170 -9.4060
N 16.0610 18.8850 -9.7920
C 15.6600 20.1560 -10.0270
H 21.1686 23.5250 -8.4447
H 19.8817 23.0033 -7.3306
H 20.2797 21.2608 -9.0090
H 20.1181 23.4625 -10.9847
H 21.8941 21.8859 -10.9394
H 17.9356 22.9588 -11.5378
H 18.6117 21.5075 -12.3163
H 18.3773 20.1911 -10.2582
H 16.0171 23.2968 -10.6950
H 13.0021 17.7233 -9.4406
H 16.2580 16.3337 -9.3976
H 14.4310 16.0557 -9.2577
O  7.4580 11.8840 -9.0700
C  8.2520 10.9680 -9.8540
C  9.7140 11.1410 -9.5120
O 10.1440 12.4550 -9.9080
C 10.1030 10.9890 -8.0550
O 11.2930 10.2210 -7.9040
C 10.2540 12.4370 -7.6070
C 10.8960 13.0440 -8.8370
N 10.5750 14.4870 -8.9440
C 11.5590 15.4300 -9.0060
O 12.7250 15.0660 -8.9320
N 11.2460 16.7140 -9.1930
C  9.9800 17.0880 -9.3340
N  9.6980 18.3950 -9.5890
C  8.9390 16.1620 -9.2740
C  9.2650 14.8240 -9.0800
H  7.6022 11.6873 -8.0487
H  7.9471  9.9448 -9.6345
H  8.1011 11.1732 -10.9138
H 10.2830 10.4126 -10.0897
H  9.2890 10.5172 -7.5047
H  9.2881 12.8936 -7.3911
H 10.9000 12.5219 -6.7332
H 11.9645 12.8395 -8.9044
H 10.4922 19.1070 -9.6735
H  8.6821 18.7104 -9.7049
H  7.9007 16.4775 -9.3761
H  8.4869 14.0619 -9.0379
P 11.6020  9.5100 -6.5020
O 11.6660  8.0320 -6.6640
O 10.6440 10.0100 -5.4940
O 13.0510 10.0940 -6.1770
C 14.1000 10.0210 -7.1560
C 15.1130 10.9920 -6.6570
O 14.5560 12.3000 -6.7550
C 15.4450 10.8060 -5.1890
O 16.8360 10.5600 -5.0130
C 14.9370 12.1000 -4.5290
C 15.0580 13.0860 -5.6710
N 14.0360 14.1400 -5.5360
C 12.7100 13.9570 -5.2590
N 12.0160 15.1030 -5.2690
C 12.9370 16.0410 -5.5580
C 12.7610 17.4510 -5.7100
O 11.7230 18.1110 -5.6300
N 13.9520 18.0790 -5.9730
C 15.1710 17.4850 -6.1070
N 16.2440 18.2920 -6.3250
N 15.3290 16.1610 -5.9860
C 14.1790 15.4990 -5.7210
H 14.5167  9.0150 -7.2054
H 13.7341 10.3120 -8.1406
H 16.0208 10.9264 -7.2567
H 14.8798  9.9596 -4.7988
H 13.9035 11.9991 -4.1976
H 15.5632 12.3891 -3.6850
H 16.0684 13.4640 -5.8267
H 12.2652 12.9836 -5.0523
H 13.9205 19.1427 -6.0841
H 17.2242 17.8698 -6.4011
H 16.1078 19.3490 -6.4204
P 17.4780 10.3800 -3.5690
O 18.6650  9.5160 -3.7290
O 16.4270  9.9400 -2.6330
O 17.9570 11.8650 -3.2080
C 18.9630 12.5310 -3.9960
C 18.9360 13.9580 -3.5360
O 17.5920 14.4090 -3.6220
C 19.2530 14.1390 -2.0660
O 20.6590 14.2190 -1.8580
C 18.5200 15.4170 -1.7280
C 17.5450 15.6020 -2.8720
N 16.1450 15.6960 -2.4280
C 15.5070 16.8860 -2.5580
O 16.1620 17.8460 -2.9570
N 14.2090 16.9830 -2.2640
C 13.5360 15.9190 -1.8250
N 12.2050 16.0170 -1.5530
C 14.1640 14.6890 -1.6520
C 15.5090 14.5840 -1.9790
H 19.9435 12.0897 -3.8172
H 18.7229 12.4663 -5.0573
H 19.5908 14.5749 -4.1514
H 18.8390 13.3102 -1.4918
H 17.9897 15.3190 -0.7807
H 19.2131 16.2564 -1.6718
H 17.8195 16.4605 -3.4850
H 11.6978 16.9489 -1.6915
H 11.6666 15.1621 -1.2008
H 13.6134 13.8296 -1.2693
H 16.0387 13.6367 -1.8782
P 21.3040 14.5290 -0.4360
O 22.6960 14.0870 -0.5240
O 20.4880 13.9540  0.6500
O 21.3060 16.1170 -0.3630
C 22.1770 16.8760 -1.2120
C 21.7390 18.2920 -1.0210
O 20.3050 18.2250 -1.0480
C 22.1010 18.9590  0.2930
O 22.5920 20.2930  0.0970
C 20.8200 18.8290  1.1210
C 19.7650 18.9850  0.0460
N 18.5130 18.2990  0.4680
C 18.3630 17.0620  1.0390
N 17.0800 16.7440  1.2810
C 16.4000 17.8320  0.8680
C 14.9960 18.0900  0.8820
O 14.0820 17.3780  1.2800
N 14.7120 19.3490  0.4180
C 15.6060 20.2680 -0.0270
N 15.1340 21.4930 -0.3820
N 16.9120 20.0170 -0.0720
C 17.2360 18.7940  0.3840
H 23.2166 16.7497 -0.9098
H 22.0612 16.5734 -2.2527
H 22.0938 18.9014 -1.8521
H 22.8830 18.3712  0.7737
H 20.7549 17.8558  1.6075
H 20.7466 19.6164  1.8711
H 19.5957 20.0286 -0.2191
H 19.1993 16.4033  1.2730
H 13.6812 19.6357  0.4056
H 15.8132 22.2570 -0.6982
H 14.0835 21.6928 -0.3451
P 22.9040 21.2380  1.3390
O 23.9940 22.1830  1.0250
O 23.1040 20.3900  2.5380
O 21.5770 22.1070  1.3900
C 21.2160 22.8330  0.2000
C 20.1010 23.7880  0.4840
O 18.9130 23.0540  0.8160
C 20.3470 24.7430  1.6330
O 19.7320 26.0100  1.4110
C 19.7520 23.9450  2.7910
C 18.4970 23.3930  2.1450
N 18.0790 22.0950  2.7580
C 18.8470 21.0200  3.1330
N 18.1140 19.9840  3.5840
C 16.8420 20.4240  3.4880
C 15.5770 19.8170  3.7860
N 15.4480 18.5370  4.2420
N 14.4820 20.5570  3.5930
C 14.5970 21.8010  3.1180
N 15.7000 22.4720  2.7830
C 16.7910 21.7060  3.0020
H 22.0825 23.3900 -0.1564
H 20.8965 22.1274 -0.5669
H 19.9073 24.3716 -0.4160
H 21.4186 24.8726  1.7842
H 20.4210 23.1469  3.1127
H 19.5163 24.5866  3.6401
H 17.6863 24.1216  2.1437
H 19.9352 21.0066  3.0721
H 16.3180 17.9330  4.3940
H 14.4768 18.1376  4.4475
H 13.6599 22.3419  2.9862
P 19.8030 27.1410  2.5260
O 19.7960 28.4780  1.8880
O 20.9530 26.8580  3.4260
O 18.3960 26.9390  3.2410
C 17.2030 27.0280  2.4520
C 16.0350 26.9580  3.3880
O 15.8560 25.6120  3.8500
C 16.1010 27.8610  4.6150
O 14.8900 28.6080  4.7570
C 16.3680 26.8440  5.7240
C 15.5610 25.6550  5.2430
N 16.1040 24.3730  5.7550
C 17.4110 23.9670  5.8300
N 17.5390 22.7060  6.2760
C 16.2660 22.3090  6.4800
C 15.7150 21.0730  6.9330
N 16.4830 19.9940  7.2430
N 14.3890 20.9940  7.0360
C 13.6360 22.0410  6.7080
N 14.0190 23.2340  6.2650
C 15.3670 23.2910  6.1740
H 17.1870 27.9723  1.9077
H 17.1626 26.1996  1.7447
H 15.1440 27.2337  2.8239
H 16.9472 28.5424  4.5271
H 17.4285 26.6026  5.7960
H 16.0105 27.2038  6.6888
H 14.4949 25.7660  5.4411
H 18.2559 24.5993  5.5571
H 17.5475 20.0509  7.1511
H 16.0226 19.0884  7.5788
H 12.5605 21.9014  6.8174
P 14.6040 29.5450  6.0200
O 13.7920 30.6960  5.5820
O 15.8520 29.8360  6.7490
O 13.6330 28.6280  6.8850
C 12.3980 28.1710  6.3030
C 11.8090 27.2170  7.3020
O 12.7670 26.1840  7.5340
C 11.5150 27.8220  8.6690
O 10.1030 27.9520  8.8910
C 12.2670 26.9060  9.6300
C 12.4260 25.6450  8.7990
N 13.6090 24.8500  9.2050
C 13.4420 23.5750  9.6560
O 12.3110 23.1010  9.8020
N 14.5510 22.8250  9.9130
C 15.8150 23.3210  9.7770
O 16.7550 22.5700 10.0290
C 15.9720 24.6470  9.3620
C 17.3450 25.2390  9.2340
C 14.8440 25.4050  9.0480
H 11.7232 29.0104  6.1351
H 12.5883 27.6624  5.3579
H 10.8969 26.7814  6.8940
H 11.9650 28.8138  8.7126
H 13.2352 27.3261  9.9023
H 11.6862 26.7155 10.5325
H 11.5140 25.0490  8.7665
H 14.4259 21.8116 10.2327
H 17.2654 26.2739  8.9012
H 17.9214 24.6673  8.5066
H 17.8469 25.2064 10.2011
H 14.9486 26.4265  8.6823
P  9.5130 28.5330 10.2600
O  8.1450 29.0070  9.9980
O 10.4550 29.5130 10.8410
O  9.3950 27.2230 11.1530
C  8.5760 26.1480 10.6640
C  8.6550 25.0600 11.6780
O 10.0030 24.6150 11.7640
C  8.2720 25.4710 13.0870
O  7.1990 24.6570 13.5530
C  9.5860 25.3070 13.8600
C 10.1900 24.1480 13.0890
N 11.6600 24.0700 13.2050
C 12.2570 22.8800 13.4860
O 11.5830 21.8660 13.6910
N 13.6200 22.8290 13.4970
C 14.4020 23.9140 13.2250
O 15.6250 23.7640 13.2520
C 13.7740 25.1260 12.9330
C 14.5630 26.3580 12.6120
C 12.3850 25.1870 12.9260
H  7.5448 26.4823 10.5504
H  8.9521 25.7953  9.7036
H  8.0230 24.2298 11.3627
H  7.9692 26.5181 13.0949
H 10.2063 26.2013 13.8008
H  9.4129 25.0528 14.9057
H  9.6930 23.1976 13.2834
H 14.0962 21.8992 13.7286
H 13.8815 27.1859 12.4168
H 15.1766 26.1774 11.7294
H 15.2059 26.6085 13.4559
H 11.8793 26.1253 12.6981
P  6.5940 24.8230 15.0160
O  5.1690 24.4240 14.9870
O  6.8700 26.1890 15.5110
O  7.4090 23.7310 15.8390
C  7.3310 22.3520 15.4330
C  8.1000 21.5980 16.4610
O  9.4780 21.9020 16.2630
C  7.7660 22.0450 17.8790
O  7.0360 21.0410 18.6110
C  9.1230 22.4140 18.4690
C 10.1070 21.7430 17.5230
N 11.3280 22.5560 17.3310
C 12.5340 21.9390 17.3290
O 12.5600 20.7310 17.5790
N 13.6390 22.6390 17.0350
C 13.5600 23.9380 16.7390
N 14.6850 24.6280 16.4040
C 12.3380 24.6090 16.7360
C 11.1930 23.8780 17.0350
H  6.2936 22.0183 15.4110
H  7.7773 22.2180 14.4476
H  7.9291 20.5271 16.3516
H  7.1554 22.9462 17.8236
H  9.2644 23.4947 18.4778
H  9.2275 22.0251 19.4819
H 10.3133 20.7033 17.7771
H 15.6310 24.1288 16.3783
H 14.6230 25.6695 16.1665
H 12.2816 25.6731 16.5065
H 10.2115 24.3521 17.0324
P  6.5090 21.3240 20.0990
O  5.3870 20.3970 20.3960
O  6.2350 22.7740 20.3060
O  7.7670 20.9240 20.9930
C  8.2160 19.5590 21.0730
C  9.4220 19.5570 21.9770
O 10.4930 20.2600 21.3190
C  9.2670 20.2670 23.3250
O 10.0880 19.6570 24.2930
C  9.7510 21.6700 22.9900
C 10.9880 21.2260 22.2560
N 11.5990 22.3570 21.5430
C 11.0370 23.5450 21.1590
N 11.9210 24.3620 20.5660
C 13.0720 23.6530 20.5800
C 14.3700 24.0030 20.1020
O 14.7470 25.0570 19.5850
N 15.2680 22.9830 20.3080
C 15.0230 21.7760 20.8910
N 16.0660 20.9140 21.0380
N 13.8150 21.4520 21.3500
C 12.9020 22.4290 21.1510
H  7.4312 18.9286 21.4911
H  8.4874 19.1934 20.0826
H  9.7306 18.5265 22.1531
H  8.2251 20.2777 23.6450
H  9.0551 22.2166 22.3536
H  9.9755 22.2628 23.8768
H 11.7019 20.7696 22.9416
H  9.9888 23.7987 21.3173
H 16.2697 23.1558 19.9738
H 15.9174 19.9722 21.5237
H 17.0346 21.1781 20.6679
P  9.4770 18.6270 25.3400
O  8.7670 17.5340 24.6270
O  8.6700 19.4090 26.3120
O 10.8070 18.0670 26.0340
C 11.6880 17.1700 25.3100
C 13.1150 17.5730 25.5930
O 13.2840 18.8040 24.8930
C 13.4410 17.8790 27.0590
O 14.3410 16.9380 27.6770
C 13.9280 19.3220 27.0250
C 14.3120 19.5080 25.5680
N 14.1440 20.9320 25.1700
C 15.1990 21.5950 24.6300
O 16.2570 20.9840 24.5040
N 15.0670 22.8770 24.2570
C 13.8980 23.5100 24.4040
N 13.7710 24.8130 24.0180
C 12.7950 22.8660 24.9670
C 12.9350 21.5400 25.3590
H 11.5225 16.1448 25.6412
H 11.4900 17.2433 24.2406
H 13.8022 16.8217 25.2039
H 12.5053 17.8583 27.6177
H 13.1349 20.0117 27.3138
H 14.7883 19.4623 27.6794
H 15.3058 19.1218 25.3417
H 14.6077 25.3302 23.5968
H 12.8348 25.3173 24.1366
H 11.8478 23.3898 25.0959
H 12.1012 20.9986 25.8060
P 14.6580 17.0640 29.2470
O 14.8630 15.7170 29.8250
O 13.6330 17.9120 29.9200
O 16.0330 17.8800 29.2840
C 17.2430 17.3200 28.7420
C 18.2080 18.4640 28.7580
O 17.7160 19.4280 27.8290
C 18.2300 19.2360 30.0580
O 18.9780 18.5830 31.0840
C 18.8850 20.5190 29.5780
C 18.2760 20.6930 28.1880
N 17.1640 21.6590 28.1390
C 15.8740 21.5360 28.5800
N 15.1290 22.6140 28.3080
C 15.9900 23.4360 27.6730
C 15.7650 24.7290 27.1170
O 14.7190 25.3730 27.0670
N 16.9260 25.2570 26.6040
C 18.1570 24.6660 26.5790
N 19.2080 25.3860 26.0960
N 18.3500 23.4380 27.0530
C 17.2310 22.8930 27.5700
H 17.6032 16.5003 29.3637
H 17.0829 16.9621 27.7250
H 19.2097 18.1334 28.4835
H 17.2135 19.4340 30.3981
H 18.5560 17.6417 31.2803
H 18.6334 21.3577 30.2272
H 19.9685 20.4130 29.5240
H 19.0491 20.9761 27.4737
H 15.4943 20.6548 29.0971
H 16.8579 26.2364 26.1785
H 20.1913 24.9640 26.0974
H 19.0501 26.3735 25.7153
