12
 generated by VMD
 C        -0.010000        0.000000        0.000000
 C        -0.707000        1.208000        0.000000
 C        -2.102000        1.208000        0.000000
 C        -2.799000        0.000000        0.000000
 C        -2.102000       -1.208000        0.000000
 C        -0.707000       -1.208000        0.000000
 H         1.093000        0.000000        0.000000
 H        -0.156000        2.163000        0.000000
 H        -2.653000        2.163000        0.000000
 H        -3.902000        0.000000        0.000000
 H        -2.653000       -2.163000        0.000000
 H        -0.156000       -2.163000        0.000000
